  13585 'GENSAL' G2    10.280      0.70900E-01  0.13190       4.3180
          0.0000      0.86000      0.50600      0.26100      0.19800
         0.13350      0.45500E-01  0.26610    /
  13585 'ESDC1A' G2   0.30000E-01   180.00      0.12300       0.0000
          0.0000       15.000      -15.000       0.0000       1.2300
         0.70000E-01   1.0000       0.0000       1.0000      0.94760E-01
          1.2000      0.48130    /
  13585 'HYGOV'  G2   0.50000E-01  0.10440       1.8040      0.50000E-01
         0.50000      0.16700       1.0000       0.0000      0.45100
          1.2000      0.45000      0.80000E-01  /
  20010 'GENROU' G1    5.9000      0.11000       1.5000      0.42000E-01
          2.7900       0.0000       1.7000       1.6300      0.26000
         0.40000      0.17300      0.10000      0.16200      0.50800    /
  20010 'MAXEX1' G1    2.0200       1.9500       30.000       1.5000    
          40.000       1.1000       60.000       1.0000       50.000    
         -1.0000    /
  20010 'EXST1'  G1   0.20000E-01  0.15000     -0.15000      0.30000
          5.0000       210.00      0.10000       6.4000      -6.0000
         0.38000E-01  0.10000       1.0000    /
  20010 'TGOV1'  G1   0.50000E-01  0.40000      0.75070      0.50000
          1.5000       5.0000       0.0000    /
  20020 'GENROU' G1    5.9000      0.11000       1.5000      0.42000E-01
          2.7900       0.0000       1.7000       1.6300      0.26000
         0.40000      0.17300      0.10000      0.16200      0.50800    /
  20020 'MAXEX1' G1    2.0200       1.9500       30.000       1.5000    
          40.000       1.1000       60.000       1.0000       50.000    
         -1.0000    /
  20020 'EXST1'  G1   0.20000E-01  0.15000     -0.15000      0.30000
          5.0000       210.00      0.10000       6.4000      -6.0000
         0.38000E-01  0.10000       1.0000    /
  20020 'TGOV1'  G1   0.50000E-01  0.40000      0.75070      0.50000
          1.5000       5.0000       0.0000    /
  20030 'GENSAL' G1    4.4760      0.50000E-01  0.50000E-01   2.5150
          1.0000      0.98100      0.56200      0.35200      0.23400
         0.10000      0.12000      0.40000    /
  20030 'MAXEX1' G1    2.0200       1.9500       30.000       1.5000    
          40.000       1.1000       60.000       1.0000       50.000    
         -1.0000    /
  20030 'EXST1'  G1   0.20000E-01  0.15000     -0.15000      0.30000
          5.0000       200.00      0.10000       6.4000      -6.0000
         0.38000E-01  0.10000       1.0000    /
  20030 'HYGOV'  G1   0.50000E-01  0.30000       6.0000      0.50000E-01
         0.10000      0.20000       1.0000      0.40000       2.0000
          1.0000       0.0000      0.80000E-01  /
  20030 'GENSAL' G2    4.4760      0.50000E-01  0.50000E-01   2.5150
          1.0000      0.98100      0.56200      0.35200      0.23400
         0.10000      0.12000      0.40000    /
  20030 'MAXEX1' G2    2.0200       1.9500       30.000       1.5000    
          40.000       1.1000       60.000       1.0000       50.000    
         -1.0000    /
  20030 'EXST1'  G2   0.20000E-01  0.15000     -0.15000      0.30000
          5.0000       200.00      0.10000       6.4000      -6.0000
         0.38000E-01  0.10000       1.0000    /
  20030 'HYGOV'  G2   0.50000E-01  0.30000       6.0000      0.50000E-01
         0.50000      0.20000      0.90000      0.40000       2.0000
          1.0000      0.10000      0.80000E-01  /
  20030 'GENSAL' G3    4.4760      0.50000E-01  0.50000E-01   2.5150
          1.0000      0.98100      0.56200      0.35200      0.23400
         0.10000      0.12000      0.40000    /
  20030 'MAXEX1' G3    2.0200       1.9500       30.000       1.5000    
          40.000       1.1000       60.000       1.0000       50.000    
         -1.0000    /
  20030 'EXST1'  G3   0.20000E-01  0.15000     -0.15000      0.30000
          5.0000       200.00      0.10000       6.4000      -6.0000
         0.38000E-01  0.10000       1.0000    /
  20030 'HYGOV'  G3   0.50000E-01  0.30000       6.0000      0.50000E-01
         0.50000      0.20000      0.85000      0.40000       2.0000
          1.0000      0.10000      0.80000E-01  /
  20040 'GENSAL' G1    5.5700      0.78000E-01  0.50000E-01   3.3500
          1.0000      0.89000      0.50000      0.29700      0.22700
         0.10000      0.17000      0.44000    /
  20040 'MAXEX1' G1    2.0200       1.9500       30.000       1.5000    
          40.000       1.1000       60.000       1.0000       50.000    
         -1.0000    /
  20040 'IEEET1' G1   0.20000E-01   100.00      0.10000       5.0000
         -5.0000     -0.50000E-01  0.50000      0.10000       1.0000
          0.0000       2.4700      0.35000E-01   3.5000      0.60000    /
  20040 'HYGOV'  G1   0.50000E-01  0.30000       6.0000      0.50000E-01
         0.50000      0.20000      0.95000      0.20000       2.0000
          1.0000      0.30000      0.80000E-01  /
  20040 'GENSAL' G2    5.5700      0.78000E-01  0.50000E-01   3.3500
          1.0000      0.89000      0.50000      0.29700      0.22700
         0.10000      0.17000      0.44000    /
  20040 'MAXEX1' G2    2.0200       1.9500       30.000       1.5000    
          40.000       1.1000       60.000       1.0000       50.000    
         -1.0000    /
  20040 'IEEET1' G2   0.20000E-01   100.00      0.10000       5.0000
         -5.0000     -0.50000E-01  0.50000      0.10000       1.0000
          0.0000       2.4700      0.35000E-01   3.5000      0.60000    /
  20040 'HYGOV'  G2   0.50000E-01  0.30000       6.0000      0.50000E-01
         0.50000      0.20000      0.95000      0.40000       2.0000
          1.0000      0.30000      0.80000E-01  /
  20040 'GENSAL' G3    5.5700      0.78000E-01  0.50000E-01   3.3500
          1.0000      0.89000      0.50000      0.29700      0.22700
         0.10000      0.17000      0.44000    /
  20040 'MAXEX1' G3    2.0200       1.9500       30.000       1.5000    
          40.000       1.1000       60.000       1.0000       50.000    
         -1.0000    /
  20040 'IEEET1' G3   0.20000E-01   100.00      0.10000       5.0000
         -5.0000     -0.50000E-01  0.50000      0.10000       1.0000
          0.0000       2.4700      0.35000E-01   3.5000      0.60000    /
  20040 'HYGOV'  G3   0.50000E-01  0.30000       6.0000      0.50000E-01
         0.50000      0.20000      0.95000      0.40000       2.0000
          1.0000      0.30000      0.80000E-01  /
  20050 'GENSAL' G1    3.7570      0.51000E-01  0.50000E-01   3.3600
          1.0000      0.92000      0.55000      0.34000      0.21000
         0.10000      0.18270      0.50700    /
  20050 'MAXEX1' G1    2.0200       1.9500       30.000       1.5000    
          40.000       1.1000       60.000       1.0000       50.000    
         -1.0000    /
  20050 'EXST1'  G1   0.20000E-01  0.15000     -0.15000      0.30000
          5.0000       150.00      0.10000       6.4000      -6.0000
         0.38000E-01  0.10000       1.0000    /
  20050 'HYGOV'  G1   0.50000E-01  0.60000       8.0000      0.50000E-01
         0.10000      0.20000      0.90000      0.40000       2.0000
          1.0500       0.0000      0.80000E-01  /
  20060 'GENSAL' G2    3.7570      0.51000E-01  0.50000E-01   3.3600
          1.0000      0.92000      0.55000      0.34000      0.21000
         0.10000      0.18270      0.50700    /
  20060 'MAXEX1' G2    2.0200       1.9500       30.000       1.5000    
          40.000       1.1000       60.000       1.0000       50.000    
         -1.0000    /
  20060 'EXST1'  G2   0.20000E-01  0.15000     -0.15000      0.30000
          5.0000       150.00      0.10000       6.4000      -6.0000
         0.38000E-01  0.10000       1.0000    /
  20060 'HYGOV'  G2   0.50000E-01  0.60000       8.0000      0.50000E-01
         0.10000      0.20000      0.90000      0.40000       2.0000
          1.0500       0.0000      0.80000E-01  /
  20286 'GENSAL' G1    5.6000      0.35000E-01  0.35000E-01   1.6400
          1.0000       1.1000      0.70000      0.34000      0.33000
         0.12000      0.16000      0.44600    /
  20286 'EXST1'  G1   0.50000E-01  0.15000     -0.15000      0.60000
          12.000       200.00      0.10000       6.0000      -6.0000
         0.10000      0.50000E-01   1.0000    /
  20286 'HYGOV'  G1   0.50000E-01  0.90000       10.400      0.99000E-01
         0.90000      0.20000      0.78000       0.0000       2.6000
          1.2000      0.30000      0.80000E-01  /
  20476 'GENROU' G1    5.9000      0.11000       1.5000      0.42000E-01
          2.7900       0.0000       1.7000       1.6300      0.26000
         0.40000      0.17300      0.10000      0.16200      0.50800    /
  20476 'EXST1'  G1   0.20000E-01  0.15000     -0.15000      0.30000
          5.0000       210.00      0.10000       6.4000      -6.0000
         0.38000E-01  0.10000       1.0000    /
  20476 'TGOV1'  G1   0.50000E-01  0.40000       1.0000      0.50000
          1.5000       5.0000       0.0000    /
  20790 'GENSAL' G1    6.0350      0.70000E-01  0.50000E-01   2.5100
          1.0000       1.1000      0.65000      0.32000      0.20900
         0.11000      0.18300      0.50700    /
  20790 'MAXEX1' G1    2.0000       1.9500       30.000       1.5000    
          40.000       1.1000       60.000       1.0000       50.000    
         -1.0000    /
  20790 'EXST1'  G1   0.20000E-01  0.15000     -0.15000      0.30000
          5.0000       150.00      0.10000       6.4000      -6.0000
         0.38000E-01  0.10000       1.0000    /
  20790 'HYGOV'  G1   0.50000E-01  0.60000       8.7000      0.50000E-01
         0.10000      0.20000      0.99000      0.40000       2.1900
          1.0500       0.0000      0.80000E-01  /
  20800 'GENSAL' G2    6.0350      0.70000E-01  0.50000E-01   2.5100
          1.0000       1.1000      0.65000      0.32000      0.20900
         0.11000      0.18300      0.50700    /
  20800 'MAXEX1' G2    2.0000       1.9500       30.000       1.5000    
          40.000       1.1000       60.000       1.0000       50.000    
         -1.0000    /
  20800 'EXST1'  G2   0.20000E-01  0.15000     -0.15000      0.30000
          5.0000       150.00      0.10000       6.4000      -6.0000
         0.38000E-01  0.10000       1.0000    /
  20800 'HYGOV'  G2   0.50000E-01  0.60000       8.7000      0.50000E-01
         0.10000      0.20000      0.99000      0.40000       2.1900
          1.0500       0.0000      0.80000E-01  /
  20810 'GENSAL' G1    5.0600      0.82000E-01  0.50000E-01   3.1660
          1.0000       1.1730      0.67300      0.34300      0.19200
         0.12000      0.17000      0.44000    /
  20810 'MAXEX1' G1    1.6000       1.9500       30.000       1.5000    
          40.000       1.1000       60.000       1.0000       50.000    
         -1.0000    /
  20810 'EXST1'  G1   0.20000E-01  0.15000     -0.15000      0.30000
          5.0000       150.00      0.10000       6.4000      -6.0000
         0.38000E-01  0.10000       1.0000    /
  20810 'HYGOV'  G1   0.50000E-01  0.60000       10.000      0.50000E-01
         0.10000      0.20000      0.99000      0.40000       2.6600
          1.0500      0.50000      0.80000E-01  /
  20820 'GENSAL' G2    5.0600      0.82000E-01  0.50000E-01   3.1660
          1.0000       1.1730      0.67300      0.34300      0.19200
         0.12000      0.17000      0.44000    /
  20820 'MAXEX1' G2    1.6000       1.9500       30.000       1.5000    
          40.000       1.1000       60.000       1.0000       50.000    
         -1.0000    /
  20820 'EXST1'  G2   0.20000E-01  0.15000     -0.15000      0.30000
          5.0000       150.00      0.10000       6.4000      -6.0000
         0.38000E-01  0.10000       1.0000    /
  20820 'HYGOV'  G2   0.50000E-01  0.60000       10.000      0.50000E-01
         0.10000      0.20000      0.99000      0.40000       2.6600
          1.0500      0.50000      0.80000E-01  /
  20830 'GENSAL' G3    5.0600      0.82000E-01  0.50000E-01   3.1660
          1.0000       1.1730      0.67300      0.34300      0.19200
         0.12000      0.17000      0.44000    /
  20830 'MAXEX1' G3    1.6000       1.9500       30.000       1.5000    
          40.000       1.1000       60.000       1.0000       50.000    
         -1.0000    /
  20830 'EXST1'  G3   0.20000E-01  0.15000     -0.15000      0.30000
          5.0000       150.00      0.10000       6.4000      -6.0000
         0.38000E-01  0.10000       1.0000    /
  20830 'HYGOV'  G3   0.50000E-01  0.60000       10.000      0.50000E-01
         0.10000      0.20000      0.99000      0.40000       2.6600
          1.0500      0.50000      0.80000E-01  /
  20840 'GENROU' G7    7.7500      0.50000E-01  0.50000      0.14100
          2.6000       0.0000       2.0000       1.9200      0.23700
         0.50000      0.17700      0.10000      0.12000      0.45000    /
  20840 'MAXEX1' G7    2.6000       1.9500       30.000       1.5000    
          40.000       1.1000       60.000       1.0000       50.000    
         -1.0000    /
  20840 'EXST1'  G7   0.20000E-01  0.15000     -0.15000      0.30000
          5.0000       210.00      0.10000       6.4000      -6.0000
         0.38000E-01  0.10000       1.0000    /
  20840 'TGOV1'  G7   0.50000E-01  0.40000       1.0000      0.55000
          1.5000       5.0000       0.0000    /
  20850 'GENROU' G4    6.4000      0.11700       1.5000      0.14100
          2.9650       0.0000       1.7250       1.6600      0.27300
         0.43000      0.19000      0.90000E-01  0.98700E-01  0.30300    /
  20850 'MAXEX1' G4    2.0200       1.9500       30.000       1.5000    
          40.000       1.1000       60.000       1.0000       50.000    
         -1.0000    /
  20850 'EXAC1'  G4   0.50000E-01   10.000       10.000       400.00
          5.0000       6.0000      -5.5000      0.40000      0.10000
          1.4000      0.20000      0.38000       1.0000       2.1000
         0.10000       2.5000      0.30000    /
  20850 'TGOV1'  G4   0.50000E-01  0.40000      0.99000      0.40000
          1.5000       5.0000       0.0000    /
  20860 'GENROU' G5    6.4000      0.11700       1.5000      0.14100
          2.9650       0.0000       1.7250       1.6600      0.27300
         0.43000      0.19000      0.90000E-01  0.98700E-01  0.30300    /
  20860 'MAXEX1' G5    2.0200       1.9500       30.000       1.5000    
          40.000       1.1000       60.000       1.0000       50.000    
         -1.0000    /
  20860 'EXAC1'  G5   0.50000E-01   10.000       10.000       400.00
          5.0000       6.0000      -5.5000      0.40000      0.10000
          1.4000      0.20000      0.38000       1.0000       2.1000
         0.10000       2.5000      0.30000    /
  20860 'TGOV1'  G5   0.50000E-01  0.40000      0.99000      0.40000
          1.5000       5.0000       0.0000    /
  20870 'GENROU' G6    6.4000      0.11700       1.5000      0.14100
          2.7550       0.0000       1.7720       1.7000      0.29500
         0.43000      0.20500      0.90000E-01  0.98700E-01  0.30300    /
  20870 'MAXEX1' G6    2.5000       1.9500       30.000       1.5000    
          40.000       1.1000       60.000       1.0000       50.000    
         -1.0000    /
  20870 'EXAC1'  G6   0.50000E-01   10.000       10.000       400.00
          5.0000       10.000      -10.000      0.40000      0.10000
          1.4000      0.20000      0.38000       1.0000      0.80000
         0.10000       1.1800      0.30000    /
  20870 'TGOV1'  G6   0.50000E-01  0.40000      0.99000      0.35000
          1.5000       5.0000       0.0000    /
  20880 'GENSAL' G1    2.5300      0.50000E-01  0.50000E-01   5.3400
          1.0000       1.2600      0.65000      0.41700      0.27700
         0.12600      0.16000      0.44600    /
  20880 'MAXEX1' G1    2.2500       1.9500       30.000       1.5000    
          40.000       1.1000       60.000       1.0000       50.000    
         -1.0000    /
  20880 'IEEET1' G1   0.10000E-01   50.000      0.10000       5.0000
         -5.0100       0.0000      0.50000      0.20000       1.0000
          0.0000       2.4700      0.35000E-01   3.5000      0.60000    /
  20880 'HYGOV'  G1   0.40000E-01  0.50000       10.000      0.50000E-01
         0.50000      0.20000      0.99000      0.30000       2.6000
          1.2000      0.10000      0.80000E-01  /
  20890 'GENSAL' G2    2.5300      0.50000E-01  0.50000E-01   5.3400
          1.0000       1.2600      0.65000      0.41700      0.27700
         0.12600      0.16000      0.44600    /
  20890 'MAXEX1' G2    2.2500       1.9500       30.000       1.5000    
          40.000       1.1000       60.000       1.0000       50.000    
         -1.0000    /
  20890 'IEEET1' G2   0.10000E-01   50.000      0.10000       5.0000
         -5.0100       0.0000      0.50000      0.20000       1.0000
          0.0000       2.4700      0.35000E-01   3.5000      0.60000    /
  20890 'HYGOV'  G2   0.40000E-01  0.50000       10.000      0.50000E-01
         0.50000      0.20000      0.99000      0.40000       2.6000
          1.2000      0.10000      0.80000E-01  /
  20900 'GENSAL' G3    2.5300      0.50000E-01  0.50000E-01   5.3400
          1.0000       1.2600      0.65000      0.41700      0.27700
         0.12600      0.16000      0.44600    /
  20900 'MAXEX1' G3    2.2500       1.9500       30.000       1.5000    
          40.000       1.1000       60.000       1.0000       50.000    
         -1.0000    /
  20900 'IEEET1' G3   0.10000E-01   50.000      0.10000       5.0000
         -5.0100       0.0000      0.50000      0.20000       1.0000
          0.0000       2.4700      0.35000E-01   3.5000      0.60000    /
  20900 'HYGOV'  G3   0.40000E-01  0.50000       10.000      0.50000E-01
         0.50000      0.20000      0.99000      0.40000       2.6000
          1.2000      0.10000      0.80000E-01  /
  20910 'GENSAL' G4    7.3200      0.23000E-01  0.50000E-01   5.3400
          1.0000       1.5000      0.75700      0.37300      0.29600
         0.15700      0.16000      0.44600    /
  20910 'MAXEX1' G4    2.2500       1.9500       30.000       1.5000    
          40.000       1.1000       60.000       1.0000       50.000    
         -1.0000    /
  20910 'EXST1'  G4   0.20000E-01  0.15000     -0.15000      0.15000
          5.0000       200.00      0.10000       6.4000      -6.0000
         0.38000E-01  0.10000       1.0000    /
  20910 'HYGOV'  G4   0.50000E-01  0.40000       10.000      0.50000E-01
         0.50000      0.20000      0.88000      0.40000       2.6000
          1.2000      0.10000      0.80000E-01  /
  20920 'GENSAL' G5    7.3200      0.23000E-01  0.50000E-01   5.3400
          1.0000       1.5000      0.75700      0.37300      0.29600
         0.15700      0.16000      0.44600    /
  20920 'MAXEX1' G5    2.2500       1.9500       30.000       1.5000    
          40.000       1.1000       60.000       1.0000       50.000    
         -1.0000    /
  20920 'EXST1'  G5   0.20000E-01  0.15000     -0.15000      0.15000
          5.0000       200.00      0.10000       6.4000      -6.0000
         0.38000E-01  0.10000       1.0000    /
  20920 'HYGOV'  G5   0.50000E-01  0.40000       10.000      0.50000E-01
         0.50000      0.20000      0.88000      0.40000       2.6000
          1.2000      0.10000      0.80000E-01  /
  20940 'GENROU' G5    4.3000      0.46000E-01  0.54000      0.76000E-01
          4.1000       0.0000       2.0000       1.9200      0.21000
         0.50000      0.15200      0.10000      0.98700E-01  0.30300    /
  20940 'MAXEX1' G5    1.9500       1.9500       30.000       1.5000    
          40.000       1.1000       60.000       1.0000       50.000    
         -1.0000    /
  20940 'IEEET1' G5   0.20000E-01   100.00      0.10000       5.0000
         -5.0000     -0.50000E-01  0.50000      0.10000       1.0000
          0.0000       2.1000      0.35000E-01   2.5000      0.60000    /
  20940 'TGOV1'  G5   0.50000E-01  0.40000      0.75000      0.45000
          1.5000       5.0000       0.0000    /
  20950 'GENROU' G6    4.3000      0.50000E-01  0.54000      0.76000E-01
          4.3300       0.0000       2.1500       2.0600      0.23200
         0.54000      0.16700      0.78000E-01  0.98700E-01  0.30300    /
  20950 'MAXEX1' G6    2.0200       1.9500       30.000       1.5000    
          40.000       1.1000       60.000       1.0000       50.000    
         -1.0000    /
  20950 'IEEET1' G6   0.20000E-01   100.00      0.10000       5.0000
         -5.0000     -0.50000E-01  0.50000      0.10000       1.0000
          0.0000       2.1000      0.35000E-01   2.5000      0.60000    /
  20950 'TGOV1'  G6   0.50000E-01  0.40000      0.75000      0.45000
          1.5000       5.0000       0.0000    /
  20960 'GENROU' G3    6.5000      0.12000      0.50000      0.70000E-01
          2.5350       0.0000       1.6350       1.5700      0.26300
         0.30000      0.18300      0.78000E-01  0.10000      0.43000    /
  20960 'MAXEX1' G3    1.8000       1.9500       30.000       1.5000    
          40.000       1.1000       60.000       1.0000       50.000    
         -1.0000    /
  20960 'EXST1'  G3   0.20000E-01  0.15000     -0.15000      0.30000
          5.0000       210.00      0.10000       6.4000      -6.0000
         0.38000E-01  0.10000       1.0000    /
  20960 'TGOV1'  G3   0.50000E-01  0.40000      0.80000      0.45000
          1.5000       5.0000       0.0000    /
  21790 'GENSAL' G1    4.0000      0.94000E-01  0.50000E-01   4.0350
          1.0000       1.0450      0.54000      0.26000      0.17000
         0.14000      0.14940      0.77000    /
  21790 'MAXEX1' G1    2.2200       1.9500       30.000       1.5000    
          40.000       1.1000       60.000       1.0000       50.000    
         -1.0000    /
  21790 'EXST1'  G1   0.20000E-01   1.0000      -1.0000       2.1081
          44.875       1000.0       0.0000       5.7139      -4.5710
          0.0000       0.0000       1.0000    /
  21790 'HYGOV'  G1   0.50000E-01  0.50000       10.000      0.50000E-01
         0.10000      0.20000      0.99000      0.40000       2.9600
          1.0500       0.0000      0.80000E-01  /
  21800 'GENSAL' G2    4.0000      0.94000E-01  0.50000E-01   4.0350
          1.0000      0.90500      0.54000      0.32000      0.17000
         0.10000      0.24500      0.77000    /
  21800 'MAXEX1' G2    2.2200       1.9500       30.000       1.5000    
          40.000       1.1000       60.000       1.0000       50.000    
         -1.0000    /
  21800 'EXST1'  G2   0.20000E-01  0.15000     -0.15000      0.30000
          5.0000       150.00      0.10000       6.4000      -6.0000
         0.38000E-01  0.10000       1.0000    /
  21800 'HYGOV'  G2   0.50000E-01  0.50000       10.000      0.50000E-01
         0.10000      0.20000      0.99000      0.40000       2.9600
          1.0500       0.0000      0.80000E-01  /
  21810 'GENSAL' G1    1.3600      0.55000E-01  0.50000E-01   2.8750
          1.0000       1.0300      0.62000      0.37100      0.21500
         0.10000      0.16000      0.44600    /
  21810 'MAXEX1' G1    2.2200       1.9500       30.000       1.5000    
          40.000       1.1000       60.000       1.0000       50.000    
         -1.0000    /
  21810 'EXST1'  G1   0.20000E-01  0.15000     -0.15000      0.30000
          5.0000       150.00      0.10000       6.4000      -6.0000
         0.38000E-01  0.10000       1.0000    /
  21810 'HYGOV'  G1   0.50000E-01  0.30000       6.0000      0.50000E-01
         0.10000      0.20000      0.99000       0.0000       1.0000
          1.1000       0.0000      0.80000E-01  /
  21820 'GENSAL' G2    1.3600      0.55000E-01  0.50000E-01   2.8750
          1.0000       1.0300      0.62000      0.37100      0.21500
         0.10000      0.16000      0.44600    /
  21820 'MAXEX1' G2    2.2200       1.9500       30.000       1.5000    
          40.000       1.1000       60.000       1.0000       50.000    
         -1.0000    /
  21820 'EXST1'  G2   0.20000E-01  0.15000     -0.15000      0.30000
          5.0000       150.00      0.10000       6.4000      -6.0000
         0.38000E-01  0.10000       1.0000    /
  21820 'HYGOV'  G2   0.50000E-01  0.30000       6.0000      0.50000E-01
         0.10000      0.20000      0.99000       0.0000       1.0000
          1.1000       0.0000      0.80000E-01  /
  21830 'GENSAL' G3    1.3600      0.55000E-01  0.50000E-01   2.8750
          1.0000       1.0300      0.62000      0.37100      0.21500
         0.10000      0.16000      0.44600    /
  21830 'MAXEX1' G3    2.2200       1.9500       30.000       1.5000    
          40.000       1.1000       60.000       1.0000       50.000    
         -1.0000    /
  21830 'EXST1'  G3   0.20000E-01  0.15000     -0.15000      0.30000
          5.0000       150.00      0.10000       6.4000      -6.0000
         0.38000E-01  0.10000       1.0000    /
  21830 'HYGOV'  G3   0.50000E-01  0.30000       6.0000      0.50000E-01
         0.10000      0.20000      0.99000       0.0000       1.0000
          1.1000       0.0000      0.80000E-01  /
  21840 'GENSAL' G1    3.1400      0.50000E-01  0.50000E-01   2.0550
          1.0000       1.4000      0.95000      0.40000      0.25000
         0.13000      0.12000      0.40000    /
  21840 'MAXEX1' G1    2.0200       1.9500       30.000       1.5000    
          40.000       1.1000       60.000       1.0000       50.000    
         -1.0000    /
  21840 'EXST1'  G1   0.20000E-01  0.15000     -0.15000      0.30000
          5.0000       150.00      0.10000       5.4000      -5.0000
         0.38000E-01  0.10000       1.0000    /
  21840 'HYGOV'  G1   0.50000E-01  0.60000       8.0000      0.50000E-01
         0.10000      0.20000      0.95000      0.60000       2.0000
          1.0500      0.50000      0.80000E-01  /
  21860 'GENSAL' G1    5.4900      0.50000E-01  0.50100E-01   2.3800
          1.0000       1.1000      0.66000      0.27000      0.23000
         0.11000      0.16000      0.44600    /
  21860 'MAXEX1' G1    2.0200       1.9500       30.000       1.5000    
          40.000       1.1000       60.000       1.0000       50.000    
         -1.0000    /
  21860 'EXST1'  G1   0.20000E-01  0.15000     -0.15000      0.30000
          5.0000       150.00      0.10000       6.4000      -6.0000
         0.38000E-01  0.10000       1.0000    /
  21860 'HYGOV'  G1   0.50000E-01  0.80000       10.000      0.50000E-01
         0.10000      0.20000      0.99000       0.0000       2.6600
          1.0500      0.50000      0.80000E-01  /
  21870 'GENSAL' G2    5.4900      0.50000E-01  0.50100E-01   2.3800
          1.0000       1.1000      0.40000      0.30000      0.23000
         0.11000      0.16000      0.44600    /
  21870 'MAXEX1' G2    2.0200       2.0000       40.000       1.5000    
          50.000       1.5000       60.000       1.0000       50.000    
         -1.0000    /
  21870 'EXST1'  G2   0.20000E-01  0.15000     -0.15000      0.30000
          5.0000       150.00      0.10000       6.4000      -6.0000
         0.38000E-01  0.10000       1.0000    /
  21870 'HYGOV'  G2   0.50000E-01  0.80000       10.000      0.50000E-01
         0.10000      0.20000      0.99000      0.40000       2.6600
          1.0500      0.50000      0.80000E-01  /
  21880 'GENSAL' G1    5.4900      0.50000E-01  0.50000E-01   2.7400
          1.0000       1.4600      0.70000      0.35000      0.22000
         0.14000      0.16000      0.44600    /
  21880 'MAXEX1' G1    2.0200       1.9500       30.000       1.5000    
          40.000       1.1000       60.000       1.0000       50.000    
         -1.0000    /
  21880 'EXST1'  G1   0.20000E-01  0.15000     -0.15000      0.30000
          5.0000       150.00      0.10000       6.4000      -6.0000
         0.38000E-01  0.10000       1.0000    /
  21880 'HYGOV'  G1   0.50000E-01  0.80000       10.000      0.50000E-01
         0.10000      0.20000      0.99000      0.40000       2.6600
          1.0500      0.50000      0.80000E-01  /
  21890 'GENSAL' G2    5.4900      0.50000E-01  0.50000E-01   2.7400
          1.0000       1.4600      0.70000      0.35000      0.22000
         0.14000      0.16000      0.44600    /
  21890 'MAXEX1' G2    2.0200       1.9500       30.000       1.5000    
          40.000       1.1000       60.000       1.0000       50.000    
         -1.0000    /
  21890 'EXST1'  G2   0.20000E-01  0.15000     -0.15000      0.30000
          5.0000       150.00      0.10000       6.4000      -6.0000
         0.38000E-01  0.10000       1.0000    /
  21890 'HYGOV'  G2   0.50000E-01  0.80000       10.000      0.50000E-01
         0.10000      0.20000      0.99000      0.40000       2.6600
          1.0500      0.50000      0.80000E-01  /
  21900 'GENSAL' G3    5.4900      0.50000E-01  0.50000E-01   2.7400
          1.0000       1.4600      0.70000      0.35000      0.22000
         0.14000      0.16000      0.44600    /
  21900 'MAXEX1' G3    2.0200       2.0000       40.000       1.5000    
          50.000       1.5000       60.000       1.0000       50.000    
         -1.0000    /
  21900 'EXST1'  G3   0.20000E-01  0.15000     -0.15000      0.30000
          5.0000       150.00      0.10000       6.4000      -6.0000
         0.38000E-01  0.10000       1.0000    /
  21900 'HYGOV'  G3   0.50000E-01  0.80000       10.000      0.50000E-01
         0.10000      0.20000      0.99000      0.40000       2.6600
          1.0500      0.50000      0.80000E-01  /
  21910 'GENSAL' G1    6.6000      0.12100      0.12000       2.3800
          1.0000       1.2000      0.68500      0.28000      0.18000
         0.11000      0.16000      0.44600    /
  21910  'URST5T'  G1
         0.15000E-01   1.0000       100.00       0.0000       0.0000
          5000.0       4.3500      -3.8000       0.0000       0.0000    /
  21910 'HYGOV'  G1   0.50000E-01   1.0900       10.400      0.99000E-01